Version 4
SHEET 1 1372 680
WIRE -16 -480 -224 -480
WIRE 352 -480 -16 -480
WIRE -224 -384 -224 -480
WIRE -16 -384 -16 -480
WIRE 352 -368 352 -400
WIRE 432 -368 352 -368
WIRE 352 -352 352 -368
WIRE 256 -320 160 -320
WIRE 256 -256 256 -320
WIRE -224 -240 -224 -304
WIRE -16 -240 -16 -304
WIRE -16 -240 -224 -240
WIRE 96 -240 -16 -240
WIRE 160 -240 96 -240
WIRE 96 -224 96 -240
WIRE 96 -128 96 -160
WIRE 96 -128 16 -128
WIRE 160 -128 160 -160
WIRE 160 -128 96 -128
WIRE 256 -128 256 -176
WIRE 256 -128 160 -128
WIRE 352 -128 352 -272
WIRE 352 -128 256 -128
WIRE 16 -112 16 -128
FLAG 16 -112 0
FLAG 432 -368 A0
IOPIN 432 -368 Out
SYMBOL voltage -224 -400 R0
WINDOW 123 0 0 Left 0
WINDOW 39 24 44 Left 2
SYMATTR SpiceLine Rser=800
SYMATTR InstName V1
SYMATTR Value SINE(0 0.27 50)
SYMBOL res 144 -256 R0
SYMATTR InstName R1
SYMATTR Value 150k
SYMBOL cap 80 -224 R0
WINDOW 3 -80 40 Left 2
SYMATTR InstName C1
SYMATTR Value 10µ
SYMBOL res 144 -336 R0
SYMATTR InstName R2
SYMATTR Value 100k
SYMBOL voltage 256 -272 R0
WINDOW 123 0 0 Left 0
WINDOW 39 0 0 Left 0
SYMATTR InstName V2
SYMATTR Value 3.3
SYMBOL res -32 -400 R0
SYMATTR InstName R3
SYMATTR Value 800
SYMBOL res 336 -496 R0
SYMATTR InstName R4
SYMATTR Value 220k
SYMBOL res 336 -368 R0
SYMATTR InstName R5
SYMATTR Value 100k
TEXT 128 -416 Left 2 !.tran 0.1
TEXT -240 -568 Left 2 ;https://openenergymonitor.org/forum-archive/node/156.html
