Version 4
SHEET 1 888 680
WIRE 96 -528 -128 -528
WIRE 208 -528 96 -528
WIRE 272 -528 208 -528
WIRE 384 -528 352 -528
WIRE 528 -528 384 -528
WIRE 640 -528 640 -560
WIRE -128 -480 -128 -528
WIRE 208 -464 208 -528
WIRE 384 -464 384 -528
WIRE 640 -448 640 -464
WIRE 640 -448 528 -448
WIRE 672 -448 640 -448
WIRE 640 -432 640 -448
WIRE 96 -416 96 -448
WIRE 528 -416 528 -448
WIRE -128 -336 -128 -400
WIRE 96 -336 -128 -336
WIRE 208 -336 208 -400
WIRE 208 -336 96 -336
WIRE 320 -336 208 -336
WIRE 384 -336 384 -384
WIRE 384 -336 320 -336
WIRE 528 -336 384 -336
WIRE 640 -336 640 -368
WIRE 320 -272 320 -336
FLAG 320 -272 0
FLAG 672 -448 A0
IOPIN 672 -448 Out
SYMBOL res 80 -544 R0
SYMATTR InstName R1
SYMATTR Value 330
SYMBOL res 80 -432 R0
SYMATTR InstName R2
SYMATTR Value 470
SYMBOL res 368 -480 R0
WINDOW 3 28 13 Left 2
SYMATTR Value 10000
SYMATTR InstName R3
SYMBOL res 512 -544 R0
WINDOW 3 33 11 Left 2
SYMATTR Value 220000
SYMATTR InstName R4
SYMBOL res 512 -432 R0
SYMATTR InstName R5
SYMATTR Value 100000
SYMBOL res 368 -544 R90
WINDOW 0 0 56 VBottom 2
WINDOW 3 32 56 VTop 2
SYMATTR InstName R6
SYMATTR Value 1000
SYMBOL zener 224 -400 R180
WINDOW 0 -56 59 Left 2
WINDOW 3 -98 -10 Left 2
SYMATTR InstName DZ1
SYMATTR Value BZX55C3V3
SYMBOL voltage -128 -496 R0
WINDOW 123 0 0 Left 0
WINDOW 39 24 44 Left 2
SYMATTR SpiceLine Rser=800
SYMATTR InstName V1
SYMATTR Value SINE(0 0.270 50)
SYMBOL diode 624 -432 R0
SYMATTR InstName D1
SYMBOL diode 624 -528 R0
SYMATTR InstName D2
TEXT -280 -240 Left 2 !.model BZX55C3V3 D(Is=1.5n Rs=.5 Cjo=185p nbv=3 bv=3.3 Ibv=1m Vpk=3.3 mfg=OnSemi type=Zener)
TEXT -216 -616 Left 2 !;ac lin 100 50 50
TEXT -216 -680 Left 2 !.tran 0.1
